[Format]      =  4.0
[Frequency]   =  0
[Precision]   =  1e-008
[MinAngle]    =  30
[DoSmartMesh] =  1
[Depth]       =  1
[LengthUnits] =  inches
[ProblemType] =  planar
[Coordinates] =  cartesian
[ACSolver]    =  0
[PrevType]    =  0
[PrevSoln]    =  ""
[Comment]     =  "Add comments here."
[PointProps]   = 0
[BdryProps]   = 0
[BlockProps]  = 0
[CircuitProps]  = 0
[NumPoints] = 73
4.9972833240999996	8.0417657210000009	0	0
1.105	11.9340490451	0	0
4.8018438164999999	7.2138706814000004	0	0
4.1686369040000004	6.7761032764999998	0	0
6.7711173795999997	4.1736228009999996	0	0
7.2088847844000004	4.8068297134	0	0
8.0367798239999999	5.0022692209999997	0	0
11.9340490451	1.105	0	0
12.5715303364	1.105	0	0
1.105	12.5715303364	0	0
-9.1245109629000005	-3.9145380822	0	0
-8.0417657210000009	-4.9972833240999996	0	0
-7.1534765521999999	-4.6206614288000001	0	0
-7.2138706814000004	-4.8018438164999999	0	0
-7.0326882936999997	-4.4252219213000004	0	0
-6.7761032764999998	-4.1686369040000004	0	0
-4.4302078182000004	-7.0277023967999996	0	0
-4.1736228009999996	-6.7711173795999997	0	0
-4.6256473258000002	-7.1484906551999998	0	0
-4.8068297134	-7.2088847844000004	0	0
-5.0022692209999997	-8.0367798239999999	0	0
-3.9195239792000001	-9.1195250658999996	0	0
-0.75260995809999998	-5.9526110448000003	0	0
3.9170310307	-9.1220180144	0	0
0.74818220489999998	-5.9531691886000004	0	0
4.9997762726000001	-8.0392727725000004	0	0
4.6231543772999997	-7.1509836037000003	0	0
4.8043367650000004	-7.2113777328999999	0	0
4.4277148696999999	-7.0301953453000001	0	0
4.1711298525	-6.7736103280000002	0	0
6.7736103280000002	-4.1711298525	0	0
7.0301953453000001	-4.4277148696999999	0	0
7.1509836037000003	-4.6231543772999997	0	0
7.2113777328999999	-4.8043367650000004	0	0
8.0392727725000004	-4.9997762726000001	0	0
9.1220180144	-3.9170310307	0	0
5.9531691886000004	-0.74818220489999998	0	0
9.1195250658999996	3.9195239792000001	0	0
5.9526110448000003	0.75260995809999998	0	0
3.9145380822	9.1245109629000005	0	0
0.74375147799999997	5.9537243586999997	0	0
-3.9170310307	9.1220180144	0	0
-0.74818220489999998	5.9531691886000004	0	0
-4.9997762726000001	8.0392727725000004	0	0
-4.5111775035999999	7.1136579791000001	0	0
-4.8043367650000004	7.2113777328999999	0	0
-4.1711298525	6.7736103280000002	0	0
-7.1136579791000001	4.5111775035999999	0	0
-6.7736103280000002	4.1711298525	0	0
-7.2113777328999999	4.8043367650000004	0	0
-9.1220180144	3.9170310307	0	0
-8.0392727725000004	4.9997762726000001	0	0
-5.9531691886000004	0.74818220489999998	0	0
-5.9537243586999997	-0.74375147799999997	0	0
2.9999999999999951	0	0	0
-2.9999999999999951	0	0	0
7.0277023967932744	4.4302078182067257	0	0
7.1484906552253182	4.6256473257917623	0	0
4.6206614287917631	7.1534765521253174	0	0
4.4252219212067256	7.0326882936932735	0	0
-1.1049999999999993	12.5715303364	0	0
-12.5715303364	1.1050000000000006	0	0
-12.5715303364	-1.1049999999999984	0	0
-1.1050000000000015	-12.5715303364	0	0
1.1049999999999978	-12.5715303364	0	0
12.5715303364	-1.1050000000000022	0	0
-1.1049999999999993	11.9340490451	0	0
-11.9340490451	1.1050000000000006	0	0
-3.9195239791999996	9.1195250658999996	0	0
-11.9340490451	-1.1049999999999984	0	0
-1.1050000000000015	-11.9340490451	0	0
1.1049999999999978	-11.9340490451	0	0
11.9340490451	-1.1050000000000022	0	0
[NumSegments] = 49
0	39	-1	0	0	0
5	57	-1	0	0	0
6	37	-1	0	0	0
7	8	-1	0	0	0
1	9	-1	0	0	0
12	13	-1	0	0	0
14	15	-1	0	0	0
16	17	-1	0	0	0
18	19	-1	0	0	0
20	21	-1	0	0	0
21	22	-1	0	0	0
23	24	-1	0	0	0
26	27	-1	0	0	0
28	29	-1	0	0	0
30	31	-1	0	0	0
32	33	-1	0	0	0
34	35	-1	0	0	0
35	36	-1	0	0	0
37	7	-1	0	0	0
37	38	-1	0	0	0
39	1	-1	0	0	0
39	40	-1	0	0	0
41	42	-1	0	0	0
43	68	-1	0	0	0
68	41	-1	0	0	0
44	45	-1	0	0	0
46	44	-1	0	0	0
47	48	-1	0	0	0
47	49	-1	0	0	0
50	51	-1	0	0	0
50	52	-1	0	0	0
10	53	-1	0	0	0
56	4	-1	0	0	0
58	2	-1	0	0	0
59	3	-1	0	0	0
66	60	-1	0	0	0
67	61	-1	0	0	0
41	66	-1	0	0	0
69	62	-1	0	0	0
70	63	-1	0	0	0
10	69	-1	0	0	0
71	64	-1	0	0	0
72	65	-1	0	0	0
23	71	-1	0	0	0
67	50	-1	0	0	0
11	10	-1	0	0	0
25	23	-1	0	0	0
72	35	-1	0	0	0
70	21	-1	0	0	0
[NumArcSegments] = 28
2	0	116.56505117709997	5	0	0	0	5
3	4	180	5	0	0	0	5
6	5	116.5650511771	5	0	0	0	5
8	9	79.963078145600008	5	0	0	0	5
54	55	180	5	0	0	0	5
55	54	180	5	0	0	0	5
11	13	116.56505117709997	5	0	0	0	5
14	12	26.565051177100003	5	0	0	0	5
17	15	180	5	0	0	0	5
18	16	26.565051177099974	5	0	0	0	5
19	20	116.5650511771	5	0	0	0	5
22	24	14.369136993600023	5	0	0	0	5
25	27	116.56505117710003	5	0	0	0	5
28	26	26.565051177100003	5	0	0	0	5
30	29	180	5	0	0	0	5
32	31	26.565051177099999	5	0	0	0	5
33	34	116.5650511771	5	0	0	0	5
36	38	14.369136993600023	5	0	0	0	5
56	57	26.565051177099974	5	0	0	0	5
58	59	26.565051177100003	5	0	0	0	5
40	42	14.283879286499996	5	0	0	0	5
43	45	116.5650511771	5	0	0	0	5
48	46	180	5	0	0	0	5
49	51	116.5650511771	5	0	0	0	5
52	53	14.283879286499996	5	0	0	0	5
60	61	79.963078145600008	5	0	0	0	5
62	63	79.963078145600008	5	0	0	0	5
64	65	79.963078145600008	5	0	0	0	5
[NumHoles] = 0
[NumBlockLabels] = 0
